<?xml version="1.0" encoding="UTF-8"?>

<!-- generated on 2022-08-25 18:14:40 by Eclipse SUMO netedit Version 1.14.1
<configuration xmlns:xsi="http://www.w3.org/2001/XMLSchema-instance" xsi:noNamespaceSchemaLocation="http://sumo.dlr.de/xsd/netconvertConfiguration.xsd">

    <input>
        <sumo-net-file value="C:\Users\alice\IC\teste.net.xml"/>
    </input>

    <output>
        <output-file value="C:\Users\alice\IC\teste.net.xml"/>
    </output>

    <processing>
        <geometry.min-radius.fix.railways value="false"/>
        <geometry.max-grade.fix value="false"/>
        <offset.disable-normalization value="true"/>
        <lefthand value="false"/>
    </processing>

    <junctions>
        <no-turnarounds value="true"/>
        <junctions.corner-detail value="5"/>
        <junctions.limit-turn-speed value="5.5"/>
        <rectangular-lane-cut value="false"/>
    </junctions>

    <pedestrian>
        <walkingareas value="false"/>
    </pedestrian>

</configuration>
-->

<net version="1.9" junctionCornerDetail="5" limitTurnSpeed="5.50" xmlns:xsi="http://www.w3.org/2001/XMLSchema-instance" xsi:noNamespaceSchemaLocation="http://sumo.dlr.de/xsd/net_file.xsd">

    <location netOffset="-332376.98,2901278.72" convBoundary="239.00,0.00,709.47,1020.67" origBoundary="-52.677827,-26.221403,-52.669766,-26.211317" projParameter="+proj=utm +zone=22 +ellps=WGS84 +datum=WGS84 +units=m +no_defs"/>

    <type id="highway.bridleway" priority="1" numLanes="1" speed="2.78" allow="pedestrian" oneway="1" width="2.00"/>
    <type id="highway.bus_guideway" priority="1" numLanes="1" speed="27.78" allow="bus" oneway="1"/>
    <type id="highway.cycleway" priority="1" numLanes="1" speed="8.33" allow="bicycle" oneway="1" width="1.00"/>
    <type id="highway.footway" priority="1" numLanes="1" speed="2.78" allow="pedestrian" oneway="1" width="2.00"/>
    <type id="highway.ford" priority="1" numLanes="1" speed="2.78" allow="army" oneway="1"/>
    <type id="highway.living_street" priority="2" numLanes="1" speed="2.78" disallow="tram rail_urban rail rail_electric rail_fast ship" oneway="1"/>
    <type id="highway.motorway" priority="14" numLanes="2" speed="39.44" allow="private emergency authority army vip passenger hov taxi bus coach delivery truck trailer motorcycle evehicle custom1 custom2" oneway="1"/>
    <type id="highway.motorway_link" priority="9" numLanes="1" speed="22.22" allow="private emergency authority army vip passenger hov taxi bus coach delivery truck trailer motorcycle evehicle custom1 custom2" oneway="1"/>
    <type id="highway.path" priority="1" numLanes="1" speed="2.78" allow="pedestrian bicycle" oneway="1" width="2.00"/>
    <type id="highway.pedestrian" priority="1" numLanes="1" speed="2.78" allow="pedestrian" oneway="1" width="2.00"/>
    <type id="highway.primary" priority="12" numLanes="2" speed="27.78" disallow="tram rail_urban rail rail_electric rail_fast ship" oneway="1"/>
    <type id="highway.primary_link" priority="7" numLanes="1" speed="22.22" disallow="tram rail_urban rail rail_electric rail_fast ship" oneway="1"/>
    <type id="highway.raceway" priority="15" numLanes="2" speed="83.33" allow="vip" oneway="1"/>
    <type id="highway.residential" priority="3" numLanes="1" speed="13.89" disallow="tram rail_urban rail rail_electric rail_fast ship" oneway="1"/>
    <type id="highway.secondary" priority="11" numLanes="1" speed="27.78" disallow="tram rail_urban rail rail_electric rail_fast ship" oneway="1"/>
    <type id="highway.secondary_link" priority="6" numLanes="1" speed="22.22" disallow="tram rail_urban rail rail_electric rail_fast ship" oneway="1"/>
    <type id="highway.service" priority="1" numLanes="1" speed="5.56" allow="pedestrian delivery bicycle" oneway="1"/>
    <type id="highway.stairs" priority="1" numLanes="1" speed="1.39" allow="pedestrian" oneway="1" width="2.00"/>
    <type id="highway.step" priority="1" numLanes="1" speed="1.39" allow="pedestrian" oneway="1" width="2.00"/>
    <type id="highway.steps" priority="1" numLanes="1" speed="1.39" allow="pedestrian" oneway="1" width="2.00"/>
    <type id="highway.tertiary" priority="10" numLanes="1" speed="22.22" disallow="tram rail_urban rail rail_electric rail_fast ship" oneway="1"/>
    <type id="highway.tertiary_link" priority="5" numLanes="1" speed="22.22" disallow="tram rail_urban rail rail_electric rail_fast ship" oneway="1"/>
    <type id="highway.track" priority="1" numLanes="1" speed="5.56" allow="pedestrian motorcycle moped bicycle" oneway="1"/>
    <type id="highway.trunk" priority="13" numLanes="2" speed="27.78" disallow="pedestrian bicycle tram rail_urban rail rail_electric rail_fast ship" oneway="1"/>
    <type id="highway.trunk_link" priority="8" numLanes="1" speed="22.22" disallow="pedestrian bicycle tram rail_urban rail rail_electric rail_fast ship" oneway="1"/>
    <type id="highway.unclassified" priority="4" numLanes="1" speed="13.89" disallow="tram rail_urban rail rail_electric rail_fast ship" oneway="1"/>
    <type id="highway.unsurfaced" priority="1" numLanes="1" speed="8.33" disallow="tram rail_urban rail rail_electric rail_fast ship" oneway="1"/>
    <type id="railway.highspeed" priority="21" numLanes="1" speed="69.44" allow="rail_fast" oneway="1"/>
    <type id="railway.light_rail" priority="19" numLanes="1" speed="27.78" allow="rail_urban" oneway="1"/>
    <type id="railway.preserved" priority="16" numLanes="1" speed="27.78" allow="rail" oneway="1"/>
    <type id="railway.rail" priority="20" numLanes="1" speed="44.44" allow="rail" oneway="1"/>
    <type id="railway.subway" priority="18" numLanes="1" speed="27.78" allow="rail_urban" oneway="1"/>
    <type id="railway.tram" priority="17" numLanes="1" speed="13.89" allow="tram" oneway="1"/>

    <edge id=":EM_0" function="internal">
        <lane id=":EM_0_0" index="0" allow="private emergency authority vip passenger hov taxi motorcycle moped bicycle evehicle custom1 custom2" speed="5.56" length="7.49" shape="345.28,962.01 343.84,963.46 342.27,964.12 340.57,964.00 338.74,963.10"/>
    </edge>
    <edge id=":EM_1" function="internal">
        <lane id=":EM_1_0" index="0" allow="private authority vip passenger taxi motorcycle moped bicycle" speed="3.91" length="2.50" shape="340.54,960.46 341.15,960.76 341.72,960.80 342.24,960.58 342.72,960.09"/>
    </edge>
    <edge id=":b_0" function="internal">
        <lane id=":b_0_0" index="0" disallow="pedestrian tram rail_urban rail rail_electric rail_fast ship" speed="7.83" length="14.75" shape="324.03,914.82 320.96,913.23 317.94,913.41 314.99,915.37 312.09,919.09"/>
    </edge>
    <edge id=":b_1" function="internal">
        <lane id=":b_1_0" index="0" disallow="pedestrian tram rail_urban rail rail_electric rail_fast ship" speed="8.24" length="14.29" shape="323.38,899.54 321.75,902.90 321.59,906.11 322.91,909.16 325.70,912.06"/>
    </edge>
    <edge id=":b_2" function="internal">
        <lane id=":b_2_0" index="0" disallow="pedestrian tram rail_urban rail rail_electric rail_fast ship" speed="16.67" length="22.58" shape="323.38,899.54 312.09,919.09"/>
        <lane id=":b_2_1" index="1" disallow="pedestrian tram rail_urban rail rail_electric rail_fast ship" speed="16.67" length="22.80" shape="320.84,897.59 309.42,917.33"/>
    </edge>
    <edge id=":b_4" function="internal">
        <lane id=":b_4_0" index="0" disallow="pedestrian tram rail_urban rail rail_electric rail_fast ship" speed="12.08" length="1.81" shape="310.07,909.05 311.86,908.80"/>
    </edge>
    <edge id=":b_5" function="internal">
        <lane id=":b_5_0" index="0" disallow="pedestrian tram rail_urban rail rail_electric rail_fast ship" speed="12.08" length="14.66" shape="311.86,908.80 314.49,908.44 318.57,908.74 322.31,909.94 325.70,912.06"/>
    </edge>
    <edge id=":c_0" function="internal">
        <lane id=":c_0_0" index="0" disallow="all" speed="4.97" length="5.35" shape="360.75,947.43 359.40,946.59 358.17,946.34 357.06,946.68 356.09,947.61"/>
    </edge>
    <edge id=":c_1" function="internal">
        <lane id=":c_1_0" index="0" allow="pedestrian" speed="11.11" length="10.40" width="2.00" shape="360.75,947.43 352.62,940.95"/>
    </edge>
    <edge id=":c_2" function="internal">
        <lane id=":c_2_0" index="0" allow="private emergency authority vip passenger hov taxi motorcycle moped bicycle evehicle custom1 custom2" speed="5.95" length="2.01" shape="362.37,945.39 360.89,944.67 360.53,944.70"/>
    </edge>
    <edge id=":c_3" function="internal">
        <lane id=":c_3_0" index="0" disallow="pedestrian tram rail_urban rail rail_electric rail_fast ship" speed="11.11" length="10.40" shape="362.37,945.39 354.24,938.91"/>
    </edge>
    <edge id=":c_10" function="internal">
        <lane id=":c_10_0" index="0" allow="private emergency authority vip passenger hov taxi motorcycle moped bicycle evehicle custom1 custom2" speed="5.95" length="5.53" shape="360.53,944.70 359.35,944.79 357.75,945.77 356.09,947.61"/>
    </edge>
    <edge id=":c_4" function="internal">
        <lane id=":c_4_0" index="0" allow="pedestrian" speed="11.11" length="10.39" width="2.00" shape="357.85,934.38 365.98,940.85"/>
    </edge>
    <edge id=":c_5" function="internal">
        <lane id=":c_5_0" index="0" disallow="all" speed="8.15" length="6.16" shape="357.85,934.38 359.66,936.73 359.96,939.72 359.90,939.91"/>
    </edge>
    <edge id=":c_6" function="internal">
        <lane id=":c_6_0" index="0" disallow="pedestrian tram rail_urban rail rail_electric rail_fast ship" speed="11.11" length="10.39" shape="356.23,936.41 364.36,942.89"/>
    </edge>
    <edge id=":c_7" function="internal">
        <lane id=":c_7_0" index="0" allow="private emergency authority vip passenger hov taxi motorcycle moped bicycle evehicle custom1 custom2" speed="7.66" length="3.06" shape="356.23,936.41 358.16,938.66 358.18,938.76"/>
    </edge>
    <edge id=":c_11" function="internal">
        <lane id=":c_11_0" index="0" disallow="all" speed="8.15" length="8.65" shape="359.90,939.91 358.77,943.34 356.09,947.61"/>
    </edge>
    <edge id=":c_12" function="internal">
        <lane id=":c_12_0" index="0" allow="private emergency authority vip passenger hov taxi motorcycle moped bicycle evehicle custom1 custom2" speed="7.66" length="9.54" shape="358.18,938.76 358.78,941.27 358.08,944.25 356.09,947.61"/>
    </edge>
    <edge id=":c_8" function="internal">
        <lane id=":c_8_0" index="0" allow="private emergency authority vip passenger hov taxi motorcycle moped bicycle evehicle custom1 custom2" speed="6.09" length="7.59" shape="353.52,945.69 354.86,943.54 355.42,941.70 355.22,940.15 354.24,938.91"/>
    </edge>
    <edge id=":c_9" function="internal">
        <lane id=":c_9_0" index="0" allow="private emergency authority vip passenger hov taxi motorcycle moped bicycle evehicle custom1 custom2" speed="7.55" length="12.79" shape="353.52,945.69 356.21,942.83 358.92,941.41 361.63,941.43 364.36,942.89"/>
    </edge>
    <edge id=":g_0" function="internal">
        <lane id=":g_0_0" index="0" allow="private emergency authority vip passenger hov taxi motorcycle moped bicycle evehicle custom1 custom2" speed="5.90" length="7.65" shape="305.61,940.54 303.42,939.34 301.57,938.96 300.08,939.41 298.94,940.68"/>
    </edge>
    <edge id=":g_1" function="internal">
        <lane id=":g_1_0" index="0" disallow="all" speed="5.21" length="5.62" shape="306.53,932.99 305.88,934.43 305.81,935.73 306.32,936.88 307.41,937.89"/>
    </edge>
    <edge id=":g_2" function="internal">
        <lane id=":g_2_0" index="0" allow="pedestrian" speed="16.67" length="10.45" width="2.00" shape="306.53,932.99 301.19,941.97"/>
    </edge>
    <edge id=":g_3" function="internal">
        <lane id=":g_3_0" index="0" allow="private authority vip passenger taxi motorcycle moped bicycle" speed="6.17" length="1.95" shape="304.32,931.62 303.83,933.11 303.92,933.48"/>
    </edge>
    <edge id=":g_4" function="internal">
        <lane id=":g_4_0" index="0" disallow="pedestrian tram rail_urban rail rail_electric rail_fast ship" speed="16.67" length="10.59" shape="304.32,931.62 298.94,940.68"/>
        <lane id=":g_4_1" index="1" disallow="pedestrian tram rail_urban rail rail_electric rail_fast ship" speed="16.67" length="10.59" shape="301.60,929.94 296.16,939.09"/>
    </edge>
    <edge id=":g_6" function="internal">
        <lane id=":g_6_0" index="0" allow="private authority vip passenger taxi motorcycle moped bicycle" speed="6.17" length="5.81" shape="303.92,933.48 304.19,934.66 305.38,936.25 307.41,937.89"/>
    </edge>
    <edge id=":j_0" function="internal">
        <lane id=":j_0_0" index="0" allow="pedestrian" speed="16.67" length="7.97" width="2.00" shape="259.26,981.73 263.10,974.73"/>
        <lane id=":j_0_1" index="1" disallow="pedestrian tram rail_urban rail rail_electric rail_fast ship" speed="16.67" length="7.97" shape="261.54,982.99 265.37,976.01"/>
    </edge>
    <edge id=":j_2" function="internal">
        <lane id=":j_2_0" index="0" disallow="pedestrian tram rail_urban rail rail_electric rail_fast ship" speed="16.67" length="8.33" shape="264.34,984.53 265.16,982.25 265.22,980.46 265.36,978.73 266.45,976.62"/>
    </edge>
    <edge id=":k_0" function="internal">
        <lane id=":k_0_0" index="0" allow="pedestrian" speed="8.40" length="9.74" width="2.00" shape="290.29,910.29 293.84,910.31 296.56,910.02 298.48,909.41 299.58,908.48"/>
        <lane id=":k_0_1" index="1" disallow="pedestrian tram rail_urban rail rail_electric rail_fast ship" speed="9.54" length="12.43" shape="290.17,912.89 294.42,912.86 297.78,912.35 300.22,911.35 301.77,909.87"/>
    </edge>
    <edge id=":k_2" function="internal">
        <lane id=":k_2_0" index="0" allow="pedestrian" speed="4.30" length="5.03" width="2.00" shape="291.78,922.01 292.31,920.61 292.17,919.59 291.37,918.95 289.90,918.68"/>
    </edge>
    <edge id=":k_3" function="internal">
        <lane id=":k_3_0" index="0" allow="pedestrian" speed="16.67" length="15.61" width="2.00" shape="291.78,922.01 299.58,908.48"/>
    </edge>
    <edge id=":k_4" function="internal">
        <lane id=":k_4_0" index="0" disallow="pedestrian tram rail_urban rail rail_electric rail_fast ship" speed="6.19" length="3.36" shape="294.06,923.25 295.20,920.25 295.18,920.09"/>
    </edge>
    <edge id=":k_5" function="internal">
        <lane id=":k_5_0" index="0" disallow="pedestrian tram rail_urban rail rail_electric rail_fast ship" speed="16.67" length="15.46" shape="294.06,923.25 301.77,909.87"/>
        <lane id=":k_5_1" index="1" disallow="pedestrian tram rail_urban rail rail_electric rail_fast ship" speed="16.67" length="15.46" shape="294.06,923.25 296.67,919.46 299.10,917.32 301.60,915.23 304.47,911.59"/>
        <lane id=":k_5_2" index="2" disallow="pedestrian tram rail_urban rail rail_electric rail_fast ship" speed="16.67" length="15.46" shape="296.87,924.78 304.47,911.59"/>
    </edge>
    <edge id=":k_8" function="internal">
        <lane id=":k_8_0" index="0" disallow="pedestrian tram rail_urban rail rail_electric rail_fast ship" speed="6.19" length="7.48" shape="295.18,920.09 294.90,918.05 293.18,916.66 290.02,916.08"/>
    </edge>
    <edge id=":l_0" function="internal">
        <lane id=":l_0_0" index="0" allow="pedestrian" speed="16.67" length="0.29" width="2.00" shape="309.98,892.12 310.16,891.83"/>
        <lane id=":l_0_1" index="1" disallow="pedestrian tram rail_urban rail rail_electric rail_fast ship" speed="16.67" length="0.29" shape="312.17,893.52 312.33,893.27"/>
        <lane id=":l_0_2" index="2" disallow="pedestrian tram rail_urban rail rail_electric rail_fast ship" speed="16.67" length="0.29" shape="314.87,895.23 314.99,895.05"/>
    </edge>

    <edge id="A1" from="a" to="b" priority="10" type="highway.primary" spreadType="center" shape="373.74,724.58 377.10,762.72 375.03,782.46 370.12,804.54 360.26,831.44 346.13,862.27 331.90,886.07 317.27,907.38">
        <lane id="A1_0" index="0" allow="pedestrian" speed="16.67" length="187.24" width="2.00" shape="376.93,724.30 380.31,762.75 378.19,782.98 373.20,805.44 363.22,832.66 348.97,863.76 334.59,887.80 325.45,901.12"/>
        <lane id="A1_1" index="1" disallow="pedestrian tram rail_urban rail rail_electric rail_fast ship" speed="16.67" length="187.24" shape="374.34,724.53 377.70,762.73 375.62,782.56 370.70,804.71 360.82,831.67 346.66,862.55 332.41,886.39 323.38,899.54"/>
        <lane id="A1_2" index="2" disallow="pedestrian tram rail_urban rail rail_electric rail_fast ship" speed="16.67" length="187.24" shape="371.15,724.81 374.49,762.70 372.46,782.04 367.62,803.81 357.85,830.45 343.83,861.06 329.71,884.67 320.84,897.59"/>
    </edge>
    <edge id="A11" from="c" to="b" priority="3">
        <lane id="A11_0" index="0" allow="pedestrian" speed="11.11" length="38.46" width="2.00" shape="352.62,940.95 322.68,917.07"/>
        <lane id="A11_1" index="1" disallow="pedestrian tram rail_urban rail rail_electric rail_fast ship" speed="11.11" length="38.46" shape="354.24,938.91 324.03,914.82"/>
    </edge>
    <edge id="A12" from="b" to="g" priority="12" shape="317.27,907.38 313.71,907.44 310.28,912.91 297.69,933.21">
        <lane id="A12_0" index="0" allow="pedestrian" speed="16.67" length="14.75" width="2.00" shape="314.26,920.53 306.53,932.99"/>
        <lane id="A12_1" index="1" disallow="pedestrian tram rail_urban rail rail_electric rail_fast ship" speed="16.67" length="14.75" shape="312.09,919.09 304.32,931.62"/>
        <lane id="A12_2" index="2" disallow="pedestrian tram rail_urban rail rail_electric rail_fast ship" speed="16.67" length="14.75" shape="309.42,917.33 301.60,929.94"/>
    </edge>
    <edge id="A13" from="g" to="h" priority="12" shape="297.69,933.21 277.57,968.27 263.88,993.48 260.84,1000.32 253.66,1013.75 251.06,1020.67">
        <lane id="A13_0" index="0" allow="pedestrian" speed="16.67" length="92.62" width="2.00" shape="301.19,941.97 284.03,971.88 270.52,996.75 267.49,1003.57 260.42,1016.81 257.99,1023.27"/>
        <lane id="A13_1" index="1" disallow="pedestrian tram rail_urban rail rail_electric rail_fast ship" speed="16.67" length="92.62" shape="298.94,940.68 281.76,970.61 268.19,995.60 265.16,1002.43 258.04,1015.73 255.55,1022.36"/>
        <lane id="A13_2" index="2" disallow="pedestrian tram rail_urban rail rail_electric rail_fast ship" speed="16.67" length="92.62" shape="296.16,939.09 278.97,969.05 265.32,994.19 262.28,1001.02 255.12,1014.41 252.56,1021.23"/>
    </edge>
    <edge id="A14" from="i" to="j" priority="12" type="highway.primary" spreadType="center" shape="245.56,1011.52 253.02,999.56 263.82,980.11">
        <lane id="A14_0" index="0" allow="pedestrian" speed="16.67" length="32.70" width="2.00" shape="242.84,1009.83 250.26,997.94 259.26,981.73"/>
        <lane id="A14_1" index="1" disallow="pedestrian tram rail_urban rail rail_electric rail_fast ship" speed="16.67" length="32.70" shape="245.05,1011.20 252.50,999.26 261.54,982.99"/>
        <lane id="A14_2" index="2" disallow="pedestrian tram rail_urban rail rail_electric rail_fast ship" speed="16.67" length="32.70" shape="247.77,1012.90 255.26,1000.88 264.34,984.53"/>
    </edge>
    <edge id="A15" from="j" to="k" priority="12" type="highway.primary" spreadType="center">
        <lane id="A15_0" index="0" allow="pedestrian" speed="16.67" length="60.06" width="2.00" shape="263.10,974.73 291.78,922.01"/>
        <lane id="A15_1" index="1" disallow="pedestrian tram rail_urban rail rail_electric rail_fast ship" speed="16.67" length="60.06" shape="265.37,976.01 294.06,923.25"/>
        <lane id="A15_2" index="2" disallow="pedestrian tram rail_urban rail rail_electric rail_fast ship" speed="16.67" length="60.06" shape="268.16,977.58 296.87,924.78"/>
    </edge>
    <edge id="A16" from="j" to="b" priority="13" type="highway.primary_link" spreadType="center" shape="263.82,980.11 274.44,966.02 306.24,912.44 309.48,909.19 317.27,907.38">
        <lane id="A16_0" index="0" disallow="pedestrian tram rail_urban rail rail_electric rail_fast ship" speed="16.67" length="80.77" shape="266.45,976.62 274.44,966.02 306.24,912.44 309.48,909.19 310.07,909.05"/>
    </edge>
    <edge id="A17" from="k" to="l" priority="12" type="highway.primary" spreadType="center">
        <lane id="A17_0" index="0" allow="pedestrian" speed="16.67" length="19.38" width="2.00" shape="299.58,908.48 309.98,892.12"/>
        <lane id="A17_1" index="1" disallow="pedestrian tram rail_urban rail rail_electric rail_fast ship" speed="16.67" length="19.38" shape="301.77,909.87 312.17,893.52"/>
        <lane id="A17_2" index="2" disallow="pedestrian tram rail_urban rail rail_electric rail_fast ship" speed="16.67" length="19.38" shape="304.47,911.59 314.87,895.23"/>
    </edge>
    <edge id="A18" from="l" to="m" priority="12" type="highway.primary" spreadType="center" length="190.00" shape="312.75,893.72 323.02,878.30 339.13,854.23 350.90,826.42 361.29,797.52 365.60,771.87 365.16,746.10 361.05,722.36">
        <lane id="A18_0" index="0" allow="pedestrian" speed="16.67" length="190.00" width="2.00" shape="310.16,891.83 320.36,876.52 336.30,852.70 347.92,825.25 358.18,796.71 362.40,771.63 361.96,746.40 357.90,722.91"/>
        <lane id="A18_1" index="1" disallow="pedestrian tram rail_urban rail rail_electric rail_fast ship" speed="16.67" length="190.00" shape="312.33,893.27 322.52,877.97 338.60,853.94 350.34,826.20 360.71,797.37 365.00,771.83 364.56,746.16 360.46,722.46"/>
        <lane id="A18_2" index="2" disallow="pedestrian tram rail_urban rail rail_electric rail_fast ship" speed="16.67" length="190.00" shape="314.99,895.05 325.18,879.74 341.43,855.47 353.32,827.37 363.82,798.18 368.20,772.06 367.76,745.85 363.61,721.92"/>
    </edge>
    <edge id="A19" from="n" to="k" priority="3" type="highway.residential" shape="239.00,913.14 268.70,913.49 299.28,914.91">
        <lane id="A19_0" index="0" allow="pedestrian" speed="11.11" length="51.22" width="2.00" shape="239.05,908.94 268.82,909.29 290.29,910.29"/>
        <lane id="A19_1" index="1" disallow="pedestrian tram rail_urban rail rail_electric rail_fast ship" speed="11.11" length="51.22" shape="239.02,911.54 268.75,911.89 290.17,912.89"/>
    </edge>
    <edge id="A2" from="b" to="c" priority="3">
        <lane id="A2_0" index="0" allow="pedestrian" speed="11.11" length="39.23" width="2.00" shape="327.05,909.81 357.85,934.38"/>
        <lane id="A2_1" index="1" disallow="pedestrian tram rail_urban rail rail_electric rail_fast ship" speed="11.11" length="39.23" shape="325.70,912.06 356.23,936.41"/>
    </edge>
    <edge id="A20" from="k" to="n" priority="3" type="highway.residential" shape="299.28,914.91 268.70,913.49 239.00,913.14">
        <lane id="A20_0" index="0" allow="pedestrian" speed="11.11" length="51.02" width="2.00" shape="289.90,918.68 268.58,917.69 238.95,917.34"/>
        <lane id="A20_1" index="1" disallow="pedestrian tram rail_urban rail rail_electric rail_fast ship" speed="11.11" length="51.02" shape="290.02,916.08 268.65,915.09 238.98,914.74"/>
    </edge>
    <edge id="A3" from="c" to="d" priority="3">
        <lane id="A3_0" index="0" allow="pedestrian" speed="11.11" length="29.48" width="2.00" shape="365.98,940.85 389.05,959.20"/>
        <lane id="A3_1" index="1" disallow="pedestrian" speed="11.11" length="29.48" shape="364.36,942.89 387.44,961.24"/>
    </edge>
    <edge id="A9" from="d" to="c" priority="3">
        <lane id="A9_0" index="0" allow="pedestrian" speed="11.11" length="29.48" width="2.00" shape="383.83,965.78 360.75,947.43"/>
        <lane id="A9_1" index="1" disallow="pedestrian" speed="11.11" length="29.48" shape="385.44,963.74 362.37,945.39"/>
    </edge>
    <edge id="E1" from="c" to="EM" priority="1">
        <lane id="E1_0" index="0" allow="private emergency authority vip passenger hov taxi motorcycle moped bicycle evehicle custom1 custom2" speed="5.56" length="18.01" shape="356.09,947.61 345.28,962.01"/>
    </edge>
    <edge id="E2" from="EM" to="g" priority="1">
        <lane id="E2_0" index="0" allow="private emergency authority vip passenger hov taxi motorcycle moped bicycle evehicle custom1 custom2" speed="5.56" length="40.08" shape="338.74,963.10 305.61,940.54"/>
    </edge>
    <edge id="E3" from="EM" to="c" priority="1">
        <lane id="E3_0" index="0" allow="private emergency authority vip passenger hov taxi motorcycle moped bicycle evehicle custom1 custom2" speed="5.56" length="18.01" shape="342.72,960.09 353.52,945.69"/>
    </edge>
    <edge id="E4" from="g" to="EM" priority="1">
        <lane id="E4_0" index="0" allow="private authority vip passenger taxi motorcycle moped bicycle" speed="5.56" length="40.08" shape="307.41,937.89 340.54,960.46"/>
    </edge>

    <junction id="1701784980" type="dead_end" x="709.47" y="0.00" incLanes="" intLanes="" shape="709.47,0.00"/>
    <junction id="EM" type="priority" x="342.17" y="963.50" incLanes="E1_0 E4_0" intLanes=":EM_0_0 :EM_1_0" shape="346.56,962.97 341.44,959.13 337.84,964.42 341.06,965.79 342.55,965.78 343.96,965.31 345.30,964.37">
        <request index="0" response="00" foes="00" cont="0"/>
        <request index="1" response="00" foes="00" cont="0"/>
    </junction>
    <junction id="a" type="dead_end" x="373.74" y="724.58" incLanes="" intLanes="" shape="369.56,724.95 377.92,724.21"/>
    <junction id="b" type="priority_stop" x="317.27" y="907.38" incLanes="A11_0 A11_1 A1_0 A1_1 A1_2 A16_0" intLanes=":b_0_0 :b_1_0 :b_2_0 :b_2_1 :b_5_0" shape="322.05,918.12 327.27,909.44 324.53,905.70 325.72,901.32 319.80,896.80 316.69,900.71 314.69,903.86 312.71,906.27 309.94,907.68 310.45,913.08 308.28,916.58 315.24,921.17 316.59,918.79 319.02,917.19" customShape="1">
        <request index="0" response="01100" foes="01100" cont="0"/>
        <request index="1" response="00000" foes="10000" cont="0"/>
        <request index="2" response="00000" foes="10001" cont="0"/>
        <request index="3" response="00000" foes="10001" cont="0"/>
        <request index="4" response="01110" foes="01110" cont="1"/>
    </junction>
    <junction id="c" type="priority" x="359.18" y="940.81" incLanes="A9_0 A9_1 A2_0 A2_1 E3_0" intLanes=":c_0_0 :c_1_0 :c_10_0 :c_3_0 :c_4_0 :c_11_0 :c_6_0 :c_12_0 :c_8_0 :c_9_0" shape="360.13,948.21 366.60,940.07 358.48,933.60 351.99,941.73 352.72,942.62 352.84,943.10 352.80,943.62 352.60,944.16 352.24,944.73 357.37,948.57 358.21,947.81 358.66,947.68 359.13,947.70 359.62,947.87">
        <request index="0" response="0000000000" foes="0010100100" cont="0"/>
        <request index="1" response="0000000000" foes="1110100100" cont="0"/>
        <request index="2" response="0000000011" foes="0010100011" cont="1"/>
        <request index="3" response="0000000000" foes="1110100000" cont="0"/>
        <request index="4" response="0000000000" foes="0000000000" cont="0"/>
        <request index="5" response="0011001111" foes="1011001111" cont="1"/>
        <request index="6" response="0000000000" foes="1000100000" cont="0"/>
        <request index="7" response="0000001111" foes="1000101111" cont="1"/>
        <request index="8" response="0000001010" foes="0000001010" cont="0"/>
        <request index="9" response="0011101010" foes="0011101010" cont="0"/>
    </junction>
    <junction id="d" type="dead_end" x="386.44" y="962.49" incLanes="A3_0 A3_1" intLanes="" shape="386.44,962.49 389.68,958.42 386.44,962.49"/>
    <junction id="g" type="priority" x="297.69" y="933.21" incLanes="E2_0 A12_0 A12_1 A12_2" intLanes=":g_0_0 :g_1_0 :g_2_0 :g_6_0 :g_4_0 :g_4_1" shape="304.71,941.86 308.31,936.57 307.33,935.63 307.09,935.13 307.02,934.62 307.11,934.08 307.38,933.52 300.24,929.09 294.78,938.29 302.06,942.47 302.80,941.63 303.22,941.45 303.68,941.43 304.18,941.57">
        <request index="0" response="110100" foes="110100" cont="0"/>
        <request index="1" response="000000" foes="001000" cont="0"/>
        <request index="2" response="000000" foes="001001" cont="0"/>
        <request index="3" response="000110" foes="000110" cont="1"/>
        <request index="4" response="000000" foes="000001" cont="0"/>
        <request index="5" response="000000" foes="000001" cont="0"/>
    </junction>
    <junction id="h" type="dead_end" x="251.06" y="1020.67" incLanes="A13_0 A13_1 A13_2" intLanes="" shape="258.92,1023.62 251.06,1020.67"/>
    <junction id="i" type="dead_end" x="245.56" y="1011.52" incLanes="" intLanes="" shape="249.12,1013.74 242.00,1009.30"/>
    <junction id="j" type="priority" x="263.82" y="980.11" incLanes="A14_0 A14_1 A14_2" intLanes=":j_0_0 :j_0_1 :j_2_0" shape="269.54,978.36 262.18,974.21 258.34,981.22 265.69,985.28 266.76,982.72 268.28,980.29" customShape="1">
        <request index="0" response="000" foes="000" cont="0"/>
        <request index="1" response="000" foes="000" cont="0"/>
        <request index="2" response="000" foes="000" cont="0"/>
    </junction>
    <junction id="k" type="priority" x="299.28" y="914.91" incLanes="A19_0 A19_1 A15_0 A15_1 A15_2" intLanes=":k_0_0 :k_0_1 :k_2_0 :k_3_0 :k_8_0 :k_5_0 :k_5_1 :k_5_2" shape="305.82,912.45 298.73,907.94 297.32,908.84 296.10,909.12 294.53,909.29 292.61,909.35 290.34,909.29 289.86,919.68 290.86,919.92 291.12,920.19 291.21,920.54 291.14,920.99 290.90,921.53 298.28,925.54">
        <request index="0" response="00001000" foes="00001000" cont="0"/>
        <request index="1" response="11101000" foes="11101000" cont="0"/>
        <request index="2" response="00000000" foes="00000000" cont="0"/>
        <request index="3" response="00000000" foes="00010011" cont="0"/>
        <request index="4" response="00001000" foes="00001000" cont="1"/>
        <request index="5" response="00000000" foes="00000010" cont="0"/>
        <request index="6" response="10000000" foes="10000010" cont="0"/>
        <request index="7" response="00000000" foes="01000010" cont="0"/>
    </junction>
    <junction id="l" type="priority" x="312.75" y="893.72" incLanes="A17_0 A17_1 A17_2" intLanes=":l_0_0 :l_0_1 :l_0_2" shape="316.32,895.93 309.33,891.28 309.13,891.58 316.22,896.09">